# created with PyMOL 3.0.3
@<TRIPOS>MOLECULE
30819
29 29 1                 
SMALL
USER_CHARGES
@<TRIPOS>ATOM
1	  PT	5.135	3.000	0.000	P.3	1	UNK0	0.000	
2	  OH	4.269	2.500	0.000	O.3	1	UNK0	0.000	
3	 OXT	2.537	-3.500	0.000	O.3	1	UNK0	0.000	
4	   O	4.269	-3.500	0.000	O.co2	1	UNK0	0.000	
5	 OI2	6.001	3.500	0.000	O.3	1	UNK0	0.000	
6	 OI3	4.635	3.866	0.000	O.3	1	UNK0	0.000	
7	 OI1	5.635	2.134	0.000	O.co2	1	UNK0	0.000	
8	   N	2.537	-1.500	0.000	N.3	1	UNK0	0.000	
9	  CB	4.269	-1.500	0.000	C.3	1	UNK0	0.000	
10	  CA	3.403	-2.000	0.000	C.3	1	UNK0	0.000	
11	  CG	4.269	-0.500	0.000	C.2	1	UNK0	0.000	
12	 CD1	5.135	-0.000	0.000	C.2	1	UNK0	0.000	
13	 CD2	3.403	-0.000	0.000	C.2	1	UNK0	0.000	
14	  CZ	4.269	1.500	0.000	C.2	1	UNK0	0.000	
15	 CE1	5.135	1.000	0.000	C.2	1	UNK0	0.000	
16	 CE2	3.403	1.000	0.000	C.2	1	UNK0	0.000	
17	   C	3.403	-3.000	0.000	C.2	1	UNK0	0.000	
18	   H	4.481	-2.083	0.000	 H	1	UNK0	0.000	
19	   H	4.880	-1.392	0.000	 H	1	UNK0	0.000	
20	   H	3.403	-1.380	0.000	 H	1	UNK0	0.000	
21	   H	5.672	-0.310	0.000	 H	1	UNK0	0.000	
22	   H	2.866	-0.310	0.000	 H	1	UNK0	0.000	
23	   H	5.672	1.310	0.000	 H	1	UNK0	0.000	
24	   H	2.866	1.310	0.000	 H	1	UNK0	0.000	
25	   H	2.000	-1.810	0.000	 H	1	UNK0	0.000	
26	   H	2.537	-0.880	0.000	 H	1	UNK0	0.000	
27	   H	2.537	-4.120	0.000	 H	1	UNK0	0.000	
28	   H	6.001	4.120	0.000	 H	1	UNK0	0.000	
29	   H	4.015	3.866	0.000	 H	1	UNK0	0.000	
@<TRIPOS>BOND
1 1 2 1
2 1 5 1
3 1 6 1
4 1 7 2
5 2 14 1
6 3 17 1
7 3 27 1
8 4 17 2
9 5 28 1
10 6 29 1
11 8 25 1
12 8 26 1
13 9 10 1
14 9 11 1
15 9 18 1
16 9 19 1
17 8 10 1
18 10 17 1
19 10 20 1
20 11 12 2
21 11 13 1
22 12 15 1
23 12 21 1
24 13 16 2
25 13 22 1
26 14 15 2
27 14 16 1
28 15 23 1
29 16 24 1
@<TRIPOS>SUBSTRUCTURE
1	UNK0	1	GROUP	1 ****	UNK
